  
       XFOIL         Version 6.99
  
 Calculated polar for: NACA 1408                                       
  
 1 1 Reynolds number fixed          Mach number fixed         
  
 xtrf =   1.000 (top)        1.000 (bottom)  
 Mach =   0.000     Re =     0.000 e 6     Ncrit =   9.000  9.000
  
   alpha    CL        CD       CDp       CM     Top_Xtr  Bot_Xtr  Top_Itr  Bot_Itr
  ------ -------- --------- --------- -------- -------- -------- -------- --------
 -15.000  -1.6169   0.00000  -0.00142  -0.0162   0.0000   0.0000   0.0000   0.0000
 -14.900  -1.6055   0.00000  -0.00141  -0.0162   0.0000   0.0000   0.0000   0.0000
 -14.800  -1.5941   0.00000  -0.00140  -0.0163   0.0000   0.0000   0.0000   0.0000
 -14.700  -1.5828   0.00000  -0.00139  -0.0164   0.0000   0.0000   0.0000   0.0000
 -14.600  -1.5714   0.00000  -0.00138  -0.0164   0.0000   0.0000   0.0000   0.0000
 -14.500  -1.5600   0.00000  -0.00138  -0.0165   0.0000   0.0000   0.0000   0.0000
 -14.400  -1.5486   0.00000  -0.00137  -0.0165   0.0000   0.0000   0.0000   0.0000
 -14.300  -1.5372   0.00000  -0.00136  -0.0166   0.0000   0.0000   0.0000   0.0000
 -14.200  -1.5258   0.00000  -0.00135  -0.0167   0.0000   0.0000   0.0000   0.0000
 -14.100  -1.5144   0.00000  -0.00134  -0.0167   0.0000   0.0000   0.0000   0.0000
 -14.000  -1.5030   0.00000  -0.00133  -0.0168   0.0000   0.0000   0.0000   0.0000
 -13.900  -1.4916   0.00000  -0.00133  -0.0169   0.0000   0.0000   0.0000   0.0000
 -13.800  -1.4801   0.00000  -0.00132  -0.0169   0.0000   0.0000   0.0000   0.0000
 -13.700  -1.4687   0.00000  -0.00131  -0.0170   0.0000   0.0000   0.0000   0.0000
 -13.600  -1.4573   0.00000  -0.00130  -0.0171   0.0000   0.0000   0.0000   0.0000
 -13.500  -1.4459   0.00000  -0.00130  -0.0171   0.0000   0.0000   0.0000   0.0000
 -13.400  -1.4344   0.00000  -0.00129  -0.0172   0.0000   0.0000   0.0000   0.0000
 -13.300  -1.4230   0.00000  -0.00128  -0.0173   0.0000   0.0000   0.0000   0.0000
 -13.200  -1.4115   0.00000  -0.00127  -0.0173   0.0000   0.0000   0.0000   0.0000
 -13.100  -1.4001   0.00000  -0.00126  -0.0174   0.0000   0.0000   0.0000   0.0000
 -13.000  -1.3886   0.00000  -0.00126  -0.0175   0.0000   0.0000   0.0000   0.0000
 -12.900  -1.3772   0.00000  -0.00125  -0.0175   0.0000   0.0000   0.0000   0.0000
 -12.800  -1.3657   0.00000  -0.00124  -0.0176   0.0000   0.0000   0.0000   0.0000
 -12.700  -1.3542   0.00000  -0.00123  -0.0177   0.0000   0.0000   0.0000   0.0000
 -12.600  -1.3428   0.00000  -0.00123  -0.0177   0.0000   0.0000   0.0000   0.0000
 -12.500  -1.3313   0.00000  -0.00122  -0.0178   0.0000   0.0000   0.0000   0.0000
 -12.400  -1.3198   0.00000  -0.00121  -0.0179   0.0000   0.0000   0.0000   0.0000
 -12.300  -1.3083   0.00000  -0.00120  -0.0179   0.0000   0.0000   0.0000   0.0000
 -12.200  -1.2968   0.00000  -0.00120  -0.0180   0.0000   0.0000   0.0000   0.0000
 -12.100  -1.2853   0.00000  -0.00119  -0.0181   0.0000   0.0000   0.0000   0.0000
 -12.000  -1.2738   0.00000  -0.00118  -0.0181   0.0000   0.0000   0.0000   0.0000
 -11.900  -1.2623   0.00000  -0.00118  -0.0182   0.0000   0.0000   0.0000   0.0000
 -11.800  -1.2508   0.00000  -0.00117  -0.0183   0.0000   0.0000   0.0000   0.0000
 -11.700  -1.2393   0.00000  -0.00116  -0.0184   0.0000   0.0000   0.0000   0.0000
 -11.600  -1.2278   0.00000  -0.00115  -0.0184   0.0000   0.0000   0.0000   0.0000
 -11.500  -1.2163   0.00000  -0.00115  -0.0185   0.0000   0.0000   0.0000   0.0000
 -11.400  -1.2048   0.00000  -0.00114  -0.0186   0.0000   0.0000   0.0000   0.0000
 -11.300  -1.1933   0.00000  -0.00113  -0.0186   0.0000   0.0000   0.0000   0.0000
 -11.200  -1.1817   0.00000  -0.00113  -0.0187   0.0000   0.0000   0.0000   0.0000
 -11.100  -1.1702   0.00000  -0.00112  -0.0188   0.0000   0.0000   0.0000   0.0000
 -11.000  -1.1587   0.00000  -0.00111  -0.0188   0.0000   0.0000   0.0000   0.0000
 -10.900  -1.1471   0.00000  -0.00111  -0.0189   0.0000   0.0000   0.0000   0.0000
 -10.800  -1.1356   0.00000  -0.00110  -0.0190   0.0000   0.0000   0.0000   0.0000
 -10.700  -1.1241   0.00000  -0.00109  -0.0191   0.0000   0.0000   0.0000   0.0000
 -10.600  -1.1125   0.00000  -0.00109  -0.0191   0.0000   0.0000   0.0000   0.0000
 -10.500  -1.1010   0.00000  -0.00108  -0.0192   0.0000   0.0000   0.0000   0.0000
 -10.400  -1.0894   0.00000  -0.00107  -0.0193   0.0000   0.0000   0.0000   0.0000
 -10.300  -1.0779   0.00000  -0.00107  -0.0193   0.0000   0.0000   0.0000   0.0000
 -10.200  -1.0663   0.00000  -0.00106  -0.0194   0.0000   0.0000   0.0000   0.0000
 -10.100  -1.0547   0.00000  -0.00106  -0.0195   0.0000   0.0000   0.0000   0.0000
 -10.000  -1.0432   0.00000  -0.00105  -0.0196   0.0000   0.0000   0.0000   0.0000
  -9.900  -1.0316   0.00000  -0.00104  -0.0196   0.0000   0.0000   0.0000   0.0000
  -9.800  -1.0200   0.00000  -0.00104  -0.0197   0.0000   0.0000   0.0000   0.0000
  -9.700  -1.0085   0.00000  -0.00103  -0.0198   0.0000   0.0000   0.0000   0.0000
  -9.600  -0.9969   0.00000  -0.00103  -0.0198   0.0000   0.0000   0.0000   0.0000
  -9.500  -0.9853   0.00000  -0.00102  -0.0199   0.0000   0.0000   0.0000   0.0000
  -9.400  -0.9737   0.00000  -0.00101  -0.0200   0.0000   0.0000   0.0000   0.0000
  -9.300  -0.9621   0.00000  -0.00101  -0.0201   0.0000   0.0000   0.0000   0.0000
  -9.200  -0.9505   0.00000  -0.00100  -0.0201   0.0000   0.0000   0.0000   0.0000
  -9.100  -0.9389   0.00000  -0.00100  -0.0202   0.0000   0.0000   0.0000   0.0000
  -9.000  -0.9274   0.00000  -0.00099  -0.0203   0.0000   0.0000   0.0000   0.0000
  -8.900  -0.9158   0.00000  -0.00099  -0.0204   0.0000   0.0000   0.0000   0.0000
  -8.800  -0.9042   0.00000  -0.00098  -0.0204   0.0000   0.0000   0.0000   0.0000
  -8.700  -0.8925   0.00000  -0.00097  -0.0205   0.0000   0.0000   0.0000   0.0000
  -8.600  -0.8809   0.00000  -0.00097  -0.0206   0.0000   0.0000   0.0000   0.0000
  -8.500  -0.8693   0.00000  -0.00096  -0.0207   0.0000   0.0000   0.0000   0.0000
  -8.400  -0.8577   0.00000  -0.00096  -0.0207   0.0000   0.0000   0.0000   0.0000
  -8.300  -0.8461   0.00000  -0.00095  -0.0208   0.0000   0.0000   0.0000   0.0000
  -8.200  -0.8345   0.00000  -0.00095  -0.0209   0.0000   0.0000   0.0000   0.0000
  -8.100  -0.8229   0.00000  -0.00094  -0.0210   0.0000   0.0000   0.0000   0.0000
  -8.000  -0.8113   0.00000  -0.00094  -0.0210   0.0000   0.0000   0.0000   0.0000
  -7.900  -0.7996   0.00000  -0.00093  -0.0211   0.0000   0.0000   0.0000   0.0000
  -7.800  -0.7880   0.00000  -0.00093  -0.0212   0.0000   0.0000   0.0000   0.0000
  -7.700  -0.7764   0.00000  -0.00092  -0.0213   0.0000   0.0000   0.0000   0.0000
  -7.600  -0.7647   0.00000  -0.00092  -0.0213   0.0000   0.0000   0.0000   0.0000
  -7.500  -0.7531   0.00000  -0.00091  -0.0214   0.0000   0.0000   0.0000   0.0000
  -7.400  -0.7415   0.00000  -0.00091  -0.0215   0.0000   0.0000   0.0000   0.0000
  -7.300  -0.7298   0.00000  -0.00090  -0.0216   0.0000   0.0000   0.0000   0.0000
  -7.200  -0.7182   0.00000  -0.00090  -0.0216   0.0000   0.0000   0.0000   0.0000
  -7.100  -0.7065   0.00000  -0.00089  -0.0217   0.0000   0.0000   0.0000   0.0000
  -7.000  -0.6949   0.00000  -0.00089  -0.0218   0.0000   0.0000   0.0000   0.0000
  -6.900  -0.6833   0.00000  -0.00089  -0.0219   0.0000   0.0000   0.0000   0.0000
  -6.800  -0.6716   0.00000  -0.00088  -0.0220   0.0000   0.0000   0.0000   0.0000
  -6.700  -0.6600   0.00000  -0.00088  -0.0220   0.0000   0.0000   0.0000   0.0000
  -6.600  -0.6483   0.00000  -0.00087  -0.0221   0.0000   0.0000   0.0000   0.0000
  -6.500  -0.6367   0.00000  -0.00087  -0.0222   0.0000   0.0000   0.0000   0.0000
  -6.400  -0.6250   0.00000  -0.00086  -0.0223   0.0000   0.0000   0.0000   0.0000
  -6.300  -0.6133   0.00000  -0.00086  -0.0223   0.0000   0.0000   0.0000   0.0000
  -6.200  -0.6017   0.00000  -0.00086  -0.0224   0.0000   0.0000   0.0000   0.0000
  -6.100  -0.5900   0.00000  -0.00085  -0.0225   0.0000   0.0000   0.0000   0.0000
  -6.000  -0.5784   0.00000  -0.00085  -0.0226   0.0000   0.0000   0.0000   0.0000
  -5.900  -0.5667   0.00000  -0.00084  -0.0227   0.0000   0.0000   0.0000   0.0000
  -5.800  -0.5550   0.00000  -0.00084  -0.0227   0.0000   0.0000   0.0000   0.0000
  -5.700  -0.5433   0.00000  -0.00084  -0.0228   0.0000   0.0000   0.0000   0.0000
  -5.600  -0.5317   0.00000  -0.00083  -0.0229   0.0000   0.0000   0.0000   0.0000
  -5.500  -0.5200   0.00000  -0.00083  -0.0230   0.0000   0.0000   0.0000   0.0000
  -5.400  -0.5083   0.00000  -0.00083  -0.0230   0.0000   0.0000   0.0000   0.0000
  -5.300  -0.4967   0.00000  -0.00082  -0.0231   0.0000   0.0000   0.0000   0.0000
  -5.200  -0.4850   0.00000  -0.00082  -0.0232   0.0000   0.0000   0.0000   0.0000
  -5.100  -0.4733   0.00000  -0.00082  -0.0233   0.0000   0.0000   0.0000   0.0000
  -5.000  -0.4616   0.00000  -0.00081  -0.0234   0.0000   0.0000   0.0000   0.0000
  -4.900  -0.4499   0.00000  -0.00081  -0.0234   0.0000   0.0000   0.0000   0.0000
  -4.800  -0.4383   0.00000  -0.00081  -0.0235   0.0000   0.0000   0.0000   0.0000
  -4.700  -0.4266   0.00000  -0.00080  -0.0236   0.0000   0.0000   0.0000   0.0000
  -4.600  -0.4149   0.00000  -0.00080  -0.0237   0.0000   0.0000   0.0000   0.0000
  -4.500  -0.4032   0.00000  -0.00080  -0.0238   0.0000   0.0000   0.0000   0.0000
  -4.400  -0.3915   0.00000  -0.00079  -0.0238   0.0000   0.0000   0.0000   0.0000
  -4.300  -0.3798   0.00000  -0.00079  -0.0239   0.0000   0.0000   0.0000   0.0000
  -4.200  -0.3681   0.00000  -0.00079  -0.0240   0.0000   0.0000   0.0000   0.0000
  -4.100  -0.3565   0.00000  -0.00079  -0.0241   0.0000   0.0000   0.0000   0.0000
  -4.000  -0.3448   0.00000  -0.00078  -0.0242   0.0000   0.0000   0.0000   0.0000
  -3.900  -0.3331   0.00000  -0.00078  -0.0242   0.0000   0.0000   0.0000   0.0000
  -3.800  -0.3214   0.00000  -0.00078  -0.0243   0.0000   0.0000   0.0000   0.0000
  -3.700  -0.3097   0.00000  -0.00078  -0.0244   0.0000   0.0000   0.0000   0.0000
  -3.600  -0.2980   0.00000  -0.00077  -0.0245   0.0000   0.0000   0.0000   0.0000
  -3.500  -0.2863   0.00000  -0.00077  -0.0246   0.0000   0.0000   0.0000   0.0000
  -3.400  -0.2746   0.00000  -0.00077  -0.0246   0.0000   0.0000   0.0000   0.0000
  -3.300  -0.2629   0.00000  -0.00077  -0.0247   0.0000   0.0000   0.0000   0.0000
  -3.200  -0.2512   0.00000  -0.00076  -0.0248   0.0000   0.0000   0.0000   0.0000
  -3.100  -0.2395   0.00000  -0.00076  -0.0249   0.0000   0.0000   0.0000   0.0000
  -3.000  -0.2278   0.00000  -0.00076  -0.0250   0.0000   0.0000   0.0000   0.0000
  -2.900  -0.2161   0.00000  -0.00076  -0.0251   0.0000   0.0000   0.0000   0.0000
  -2.800  -0.2044   0.00000  -0.00076  -0.0251   0.0000   0.0000   0.0000   0.0000
  -2.700  -0.1927   0.00000  -0.00075  -0.0252   0.0000   0.0000   0.0000   0.0000
  -2.600  -0.1810   0.00000  -0.00075  -0.0253   0.0000   0.0000   0.0000   0.0000
  -2.500  -0.1693   0.00000  -0.00075  -0.0254   0.0000   0.0000   0.0000   0.0000
  -2.400  -0.1576   0.00000  -0.00075  -0.0255   0.0000   0.0000   0.0000   0.0000
  -2.300  -0.1459   0.00000  -0.00075  -0.0255   0.0000   0.0000   0.0000   0.0000
  -2.200  -0.1342   0.00000  -0.00075  -0.0256   0.0000   0.0000   0.0000   0.0000
  -2.100  -0.1225   0.00000  -0.00074  -0.0257   0.0000   0.0000   0.0000   0.0000
  -2.000  -0.1108   0.00000  -0.00074  -0.0258   0.0000   0.0000   0.0000   0.0000
  -1.900  -0.0990   0.00000  -0.00074  -0.0259   0.0000   0.0000   0.0000   0.0000
  -1.800  -0.0873   0.00000  -0.00074  -0.0260   0.0000   0.0000   0.0000   0.0000
  -1.700  -0.0756   0.00000  -0.00074  -0.0260   0.0000   0.0000   0.0000   0.0000
  -1.600  -0.0639   0.00000  -0.00074  -0.0261   0.0000   0.0000   0.0000   0.0000
  -1.500  -0.0522   0.00000  -0.00074  -0.0262   0.0000   0.0000   0.0000   0.0000
  -1.400  -0.0405   0.00000  -0.00074  -0.0263   0.0000   0.0000   0.0000   0.0000
  -1.300  -0.0288   0.00000  -0.00074  -0.0264   0.0000   0.0000   0.0000   0.0000
  -1.200  -0.0171   0.00000  -0.00073  -0.0265   0.0000   0.0000   0.0000   0.0000
  -1.100  -0.0054   0.00000  -0.00073  -0.0265   0.0000   0.0000   0.0000   0.0000
  -1.000   0.0063   0.00000  -0.00073  -0.0266   0.0000   0.0000   0.0000   0.0000
  -0.900   0.0180   0.00000  -0.00073  -0.0267   0.0000   0.0000   0.0000   0.0000
  -0.800   0.0297   0.00000  -0.00073  -0.0268   0.0000   0.0000   0.0000   0.0000
  -0.700   0.0414   0.00000  -0.00073  -0.0269   0.0000   0.0000   0.0000   0.0000
  -0.600   0.0531   0.00000  -0.00073  -0.0270   0.0000   0.0000   0.0000   0.0000
  -0.500   0.0648   0.00000  -0.00073  -0.0270   0.0000   0.0000   0.0000   0.0000
  -0.400   0.0766   0.00000  -0.00073  -0.0271   0.0000   0.0000   0.0000   0.0000
  -0.300   0.0883   0.00000  -0.00073  -0.0272   0.0000   0.0000   0.0000   0.0000
  -0.200   0.1000   0.00000  -0.00073  -0.0273   0.0000   0.0000   0.0000   0.0000
  -0.100   0.1117   0.00000  -0.00073  -0.0274   0.0000   0.0000   0.0000   0.0000
   0.000   0.1234   0.00000  -0.00073  -0.0275   0.0000   0.0000   0.0000   0.0000
   0.100   0.1351   0.00000  -0.00073  -0.0275   0.0000   0.0000   0.0000   0.0000
   0.200   0.1468   0.00000  -0.00073  -0.0276   0.0000   0.0000   0.0000   0.0000
   0.300   0.1585   0.00000  -0.00073  -0.0277   0.0000   0.0000   0.0000   0.0000
   0.400   0.1702   0.00000  -0.00073  -0.0278   0.0000   0.0000   0.0000   0.0000
   0.500   0.1819   0.00000  -0.00073  -0.0279   0.0000   0.0000   0.0000   0.0000
   0.600   0.1936   0.00000  -0.00073  -0.0280   0.0000   0.0000   0.0000   0.0000
   0.700   0.2053   0.00000  -0.00073  -0.0280   0.0000   0.0000   0.0000   0.0000
   0.800   0.2170   0.00000  -0.00073  -0.0281   0.0000   0.0000   0.0000   0.0000
   0.900   0.2287   0.00000  -0.00073  -0.0282   0.0000   0.0000   0.0000   0.0000
   1.000   0.2404   0.00000  -0.00073  -0.0283   0.0000   0.0000   0.0000   0.0000
   1.100   0.2521   0.00000  -0.00073  -0.0284   0.0000   0.0000   0.0000   0.0000
   1.200   0.2638   0.00000  -0.00073  -0.0285   0.0000   0.0000   0.0000   0.0000
   1.300   0.2755   0.00000  -0.00073  -0.0286   0.0000   0.0000   0.0000   0.0000
   1.400   0.2872   0.00000  -0.00074  -0.0286   0.0000   0.0000   0.0000   0.0000
   1.500   0.2989   0.00000  -0.00074  -0.0287   0.0000   0.0000   0.0000   0.0000
   1.600   0.3106   0.00000  -0.00074  -0.0288   0.0000   0.0000   0.0000   0.0000
   1.700   0.3223   0.00000  -0.00074  -0.0289   0.0000   0.0000   0.0000   0.0000
   1.800   0.3340   0.00000  -0.00074  -0.0290   0.0000   0.0000   0.0000   0.0000
   1.900   0.3457   0.00000  -0.00074  -0.0291   0.0000   0.0000   0.0000   0.0000
   2.000   0.3574   0.00000  -0.00074  -0.0291   0.0000   0.0000   0.0000   0.0000
   2.100   0.3691   0.00000  -0.00074  -0.0292   0.0000   0.0000   0.0000   0.0000
   2.200   0.3807   0.00000  -0.00075  -0.0293   0.0000   0.0000   0.0000   0.0000
   2.300   0.3924   0.00000  -0.00075  -0.0294   0.0000   0.0000   0.0000   0.0000
   2.400   0.4041   0.00000  -0.00075  -0.0295   0.0000   0.0000   0.0000   0.0000
   2.500   0.4158   0.00000  -0.00075  -0.0296   0.0000   0.0000   0.0000   0.0000
   2.600   0.4275   0.00000  -0.00075  -0.0297   0.0000   0.0000   0.0000   0.0000
   2.700   0.4392   0.00000  -0.00075  -0.0297   0.0000   0.0000   0.0000   0.0000
   2.800   0.4508   0.00000  -0.00075  -0.0298   0.0000   0.0000   0.0000   0.0000
   2.900   0.4625   0.00000  -0.00076  -0.0299   0.0000   0.0000   0.0000   0.0000
   3.000   0.4742   0.00000  -0.00076  -0.0300   0.0000   0.0000   0.0000   0.0000
   3.100   0.4859   0.00000  -0.00076  -0.0301   0.0000   0.0000   0.0000   0.0000
   3.200   0.4976   0.00000  -0.00076  -0.0302   0.0000   0.0000   0.0000   0.0000
   3.300   0.5092   0.00000  -0.00076  -0.0303   0.0000   0.0000   0.0000   0.0000
   3.400   0.5209   0.00000  -0.00077  -0.0303   0.0000   0.0000   0.0000   0.0000
   3.500   0.5326   0.00000  -0.00077  -0.0304   0.0000   0.0000   0.0000   0.0000
   3.600   0.5442   0.00000  -0.00077  -0.0305   0.0000   0.0000   0.0000   0.0000
   3.700   0.5559   0.00000  -0.00077  -0.0306   0.0000   0.0000   0.0000   0.0000
   3.800   0.5676   0.00000  -0.00078  -0.0307   0.0000   0.0000   0.0000   0.0000
   3.900   0.5792   0.00000  -0.00078  -0.0308   0.0000   0.0000   0.0000   0.0000
   4.000   0.5909   0.00000  -0.00078  -0.0309   0.0000   0.0000   0.0000   0.0000
   4.100   0.6026   0.00000  -0.00078  -0.0309   0.0000   0.0000   0.0000   0.0000
   4.200   0.6142   0.00000  -0.00079  -0.0310   0.0000   0.0000   0.0000   0.0000
   4.300   0.6259   0.00000  -0.00079  -0.0311   0.0000   0.0000   0.0000   0.0000
   4.400   0.6375   0.00000  -0.00079  -0.0312   0.0000   0.0000   0.0000   0.0000
   4.500   0.6492   0.00000  -0.00080  -0.0313   0.0000   0.0000   0.0000   0.0000
   4.600   0.6608   0.00000  -0.00080  -0.0314   0.0000   0.0000   0.0000   0.0000
   4.700   0.6725   0.00000  -0.00080  -0.0315   0.0000   0.0000   0.0000   0.0000
   4.800   0.6841   0.00000  -0.00080  -0.0315   0.0000   0.0000   0.0000   0.0000
   4.900   0.6958   0.00000  -0.00081  -0.0316   0.0000   0.0000   0.0000   0.0000
   5.000   0.7074   0.00000  -0.00081  -0.0317   0.0000   0.0000   0.0000   0.0000
   5.100   0.7191   0.00000  -0.00081  -0.0318   0.0000   0.0000   0.0000   0.0000
   5.200   0.7307   0.00000  -0.00082  -0.0319   0.0000   0.0000   0.0000   0.0000
   5.300   0.7423   0.00000  -0.00082  -0.0320   0.0000   0.0000   0.0000   0.0000
   5.400   0.7540   0.00000  -0.00082  -0.0321   0.0000   0.0000   0.0000   0.0000
   5.500   0.7656   0.00000  -0.00083  -0.0322   0.0000   0.0000   0.0000   0.0000
   5.600   0.7772   0.00000  -0.00083  -0.0322   0.0000   0.0000   0.0000   0.0000
   5.700   0.7889   0.00000  -0.00084  -0.0323   0.0000   0.0000   0.0000   0.0000
   5.800   0.8005   0.00000  -0.00084  -0.0324   0.0000   0.0000   0.0000   0.0000
   5.900   0.8121   0.00000  -0.00084  -0.0325   0.0000   0.0000   0.0000   0.0000
   6.000   0.8237   0.00000  -0.00085  -0.0326   0.0000   0.0000   0.0000   0.0000
   6.100   0.8354   0.00000  -0.00085  -0.0327   0.0000   0.0000   0.0000   0.0000
   6.200   0.8470   0.00000  -0.00086  -0.0328   0.0000   0.0000   0.0000   0.0000
   6.300   0.8586   0.00000  -0.00086  -0.0328   0.0000   0.0000   0.0000   0.0000
   6.400   0.8702   0.00000  -0.00086  -0.0329   0.0000   0.0000   0.0000   0.0000
   6.500   0.8818   0.00000  -0.00087  -0.0330   0.0000   0.0000   0.0000   0.0000
   6.600   0.8934   0.00000  -0.00087  -0.0331   0.0000   0.0000   0.0000   0.0000
   6.700   0.9050   0.00000  -0.00088  -0.0332   0.0000   0.0000   0.0000   0.0000
   6.800   0.9166   0.00000  -0.00088  -0.0333   0.0000   0.0000   0.0000   0.0000
   6.900   0.9282   0.00000  -0.00089  -0.0334   0.0000   0.0000   0.0000   0.0000
   7.000   0.9398   0.00000  -0.00089  -0.0334   0.0000   0.0000   0.0000   0.0000
   7.100   0.9514   0.00000  -0.00089  -0.0335   0.0000   0.0000   0.0000   0.0000
   7.200   0.9630   0.00000  -0.00090  -0.0336   0.0000   0.0000   0.0000   0.0000
   7.300   0.9746   0.00000  -0.00090  -0.0337   0.0000   0.0000   0.0000   0.0000
   7.400   0.9861   0.00000  -0.00091  -0.0338   0.0000   0.0000   0.0000   0.0000
   7.500   0.9977   0.00000  -0.00091  -0.0339   0.0000   0.0000   0.0000   0.0000
   7.600   1.0093   0.00000  -0.00092  -0.0340   0.0000   0.0000   0.0000   0.0000
   7.700   1.0209   0.00000  -0.00092  -0.0340   0.0000   0.0000   0.0000   0.0000
   7.800   1.0324   0.00000  -0.00093  -0.0341   0.0000   0.0000   0.0000   0.0000
   7.900   1.0440   0.00000  -0.00093  -0.0342   0.0000   0.0000   0.0000   0.0000
   8.000   1.0556   0.00000  -0.00094  -0.0343   0.0000   0.0000   0.0000   0.0000
   8.100   1.0671   0.00000  -0.00094  -0.0344   0.0000   0.0000   0.0000   0.0000
   8.200   1.0787   0.00000  -0.00095  -0.0345   0.0000   0.0000   0.0000   0.0000
   8.300   1.0902   0.00000  -0.00095  -0.0346   0.0000   0.0000   0.0000   0.0000
   8.400   1.1018   0.00000  -0.00096  -0.0347   0.0000   0.0000   0.0000   0.0000
   8.500   1.1133   0.00000  -0.00097  -0.0347   0.0000   0.0000   0.0000   0.0000
   8.600   1.1249   0.00000  -0.00097  -0.0348   0.0000   0.0000   0.0000   0.0000
   8.700   1.1364   0.00000  -0.00098  -0.0349   0.0000   0.0000   0.0000   0.0000
   8.800   1.1480   0.00000  -0.00098  -0.0350   0.0000   0.0000   0.0000   0.0000
   8.900   1.1595   0.00000  -0.00099  -0.0351   0.0000   0.0000   0.0000   0.0000
   9.000   1.1710   0.00000  -0.00099  -0.0352   0.0000   0.0000   0.0000   0.0000
   9.100   1.1825   0.00000  -0.00100  -0.0353   0.0000   0.0000   0.0000   0.0000
   9.200   1.1941   0.00000  -0.00101  -0.0353   0.0000   0.0000   0.0000   0.0000
   9.300   1.2056   0.00000  -0.00101  -0.0354   0.0000   0.0000   0.0000   0.0000
   9.400   1.2171   0.00000  -0.00102  -0.0355   0.0000   0.0000   0.0000   0.0000
   9.500   1.2286   0.00000  -0.00102  -0.0356   0.0000   0.0000   0.0000   0.0000
   9.600   1.2401   0.00000  -0.00103  -0.0357   0.0000   0.0000   0.0000   0.0000
   9.700   1.2516   0.00000  -0.00104  -0.0358   0.0000   0.0000   0.0000   0.0000
   9.800   1.2631   0.00000  -0.00104  -0.0359   0.0000   0.0000   0.0000   0.0000
   9.900   1.2746   0.00000  -0.00105  -0.0359   0.0000   0.0000   0.0000   0.0000
  10.000   1.2861   0.00000  -0.00106  -0.0360   0.0000   0.0000   0.0000   0.0000
  10.100   1.2976   0.00000  -0.00106  -0.0361   0.0000   0.0000   0.0000   0.0000
  10.200   1.3091   0.00000  -0.00107  -0.0362   0.0000   0.0000   0.0000   0.0000
  10.300   1.3206   0.00000  -0.00108  -0.0363   0.0000   0.0000   0.0000   0.0000
  10.400   1.3321   0.00000  -0.00108  -0.0364   0.0000   0.0000   0.0000   0.0000
  10.500   1.3435   0.00000  -0.00109  -0.0365   0.0000   0.0000   0.0000   0.0000
  10.600   1.3550   0.00000  -0.00110  -0.0365   0.0000   0.0000   0.0000   0.0000
  10.700   1.3665   0.00000  -0.00110  -0.0366   0.0000   0.0000   0.0000   0.0000
  10.800   1.3779   0.00000  -0.00111  -0.0367   0.0000   0.0000   0.0000   0.0000
  10.900   1.3894   0.00000  -0.00112  -0.0368   0.0000   0.0000   0.0000   0.0000
  11.000   1.4008   0.00000  -0.00112  -0.0369   0.0000   0.0000   0.0000   0.0000
  11.100   1.4123   0.00000  -0.00113  -0.0370   0.0000   0.0000   0.0000   0.0000
  11.200   1.4237   0.00000  -0.00114  -0.0370   0.0000   0.0000   0.0000   0.0000
  11.300   1.4352   0.00000  -0.00114  -0.0371   0.0000   0.0000   0.0000   0.0000
  11.400   1.4466   0.00000  -0.00115  -0.0372   0.0000   0.0000   0.0000   0.0000
  11.500   1.4580   0.00000  -0.00116  -0.0373   0.0000   0.0000   0.0000   0.0000
  11.600   1.4695   0.00000  -0.00117  -0.0374   0.0000   0.0000   0.0000   0.0000
  11.700   1.4809   0.00000  -0.00117  -0.0375   0.0000   0.0000   0.0000   0.0000
  11.800   1.4923   0.00000  -0.00118  -0.0376   0.0000   0.0000   0.0000   0.0000
  11.900   1.5037   0.00000  -0.00119  -0.0376   0.0000   0.0000   0.0000   0.0000
  12.000   1.5151   0.00000  -0.00120  -0.0377   0.0000   0.0000   0.0000   0.0000
  12.100   1.5265   0.00000  -0.00120  -0.0378   0.0000   0.0000   0.0000   0.0000
  12.200   1.5379   0.00000  -0.00121  -0.0379   0.0000   0.0000   0.0000   0.0000
  12.300   1.5493   0.00000  -0.00122  -0.0380   0.0000   0.0000   0.0000   0.0000
  12.400   1.5607   0.00000  -0.00123  -0.0381   0.0000   0.0000   0.0000   0.0000
  12.500   1.5721   0.00000  -0.00123  -0.0382   0.0000   0.0000   0.0000   0.0000
  12.600   1.5835   0.00000  -0.00124  -0.0382   0.0000   0.0000   0.0000   0.0000
  12.700   1.5948   0.00000  -0.00125  -0.0383   0.0000   0.0000   0.0000   0.0000
  12.800   1.6062   0.00000  -0.00126  -0.0384   0.0000   0.0000   0.0000   0.0000
  12.900   1.6176   0.00000  -0.00127  -0.0385   0.0000   0.0000   0.0000   0.0000
  13.000   1.6289   0.00000  -0.00127  -0.0386   0.0000   0.0000   0.0000   0.0000
  13.100   1.6403   0.00000  -0.00128  -0.0387   0.0000   0.0000   0.0000   0.0000
  13.200   1.6517   0.00000  -0.00129  -0.0387   0.0000   0.0000   0.0000   0.0000
  13.300   1.6630   0.00000  -0.00130  -0.0388   0.0000   0.0000   0.0000   0.0000
  13.400   1.6743   0.00000  -0.00131  -0.0389   0.0000   0.0000   0.0000   0.0000
  13.500   1.6857   0.00000  -0.00132  -0.0390   0.0000   0.0000   0.0000   0.0000
  13.600   1.6970   0.00000  -0.00132  -0.0391   0.0000   0.0000   0.0000   0.0000
  13.700   1.7083   0.00000  -0.00133  -0.0392   0.0000   0.0000   0.0000   0.0000
  13.800   1.7197   0.00000  -0.00134  -0.0392   0.0000   0.0000   0.0000   0.0000
  13.900   1.7310   0.00000  -0.00135  -0.0393   0.0000   0.0000   0.0000   0.0000
  14.000   1.7423   0.00000  -0.00136  -0.0394   0.0000   0.0000   0.0000   0.0000
  14.100   1.7536   0.00000  -0.00137  -0.0395   0.0000   0.0000   0.0000   0.0000
  14.200   1.7649   0.00000  -0.00138  -0.0396   0.0000   0.0000   0.0000   0.0000
  14.300   1.7762   0.00000  -0.00138  -0.0397   0.0000   0.0000   0.0000   0.0000
  14.400   1.7875   0.00000  -0.00139  -0.0397   0.0000   0.0000   0.0000   0.0000
  14.500   1.7988   0.00000  -0.00140  -0.0398   0.0000   0.0000   0.0000   0.0000
  14.600   1.8100   0.00000  -0.00141  -0.0399   0.0000   0.0000   0.0000   0.0000
  14.700   1.8213   0.00000  -0.00142  -0.0400   0.0000   0.0000   0.0000   0.0000
  14.800   1.8326   0.00000  -0.00143  -0.0401   0.0000   0.0000   0.0000   0.0000
  14.900   1.8438   0.00000  -0.00144  -0.0402   0.0000   0.0000   0.0000   0.0000
  15.000   1.8551   0.00000  -0.00145  -0.0402   0.0000   0.0000   0.0000   0.0000
